/* Definicoes de baterias */

// Curva da bateria
New LoadShape.BateriaCurva npts=24 interval=1
~ mult=[0 0 -1 -1 -1 -1 -1 0 0 0 0 0 0 0 0 0 0 0 0.8 0.9 0.94 1 0.94 0]

// Conexoes nas barras do sistema

// Conexao na barra A1-1 
New Storage.BateriaA1-1 phases=3 bus1=A1-1 kv=0.38 kwrated=10 kwhrated=40 dispmode=follow daily=BateriaCurva